Circuit: * C:\Users\Arif\Documents\GitHub\LTspice_ED\Draft6.asc

Direct Newton iteration for .op point succeeded.

Date: Wed Oct 30 23:48:06 2024
Total elapsed time: 0.164 seconds.

tnom = 27
temp = 27
method = modified trap
totiter = 2367
traniter = 2363
tranpoints = 1147
accept = 1137
rejected = 10
matrix size = 20
fillins = 9
solver = Normal
Avg thread counts: 2.2/3.4/3.4/2.2
Matrix Compiler1: 1.93 KB object code size  1.4/0.5/[0.3]
Matrix Compiler2: 2.22 KB object code size  0.5/0.8/[0.2]

