Circuit: * C:\Users\Arif\Documents\GitHub\LTspice_ED\Draft3.asc

WARNING: Node NC_02 is floating.

WARNING: Less than two connections to node nc_01.  This node is used by v1.
WARNING: Less than two connections to node nc_02.  This node is used by v1.
Direct Newton iteration failed to find .op point.  (Use ".option noopiter" to skip.)
Starting Gmin stepping
Gmin = 10
Gmin = 1.07374
Gmin = 0.115292
Gmin = 0.0123794
Gmin = 0.00132923
Gmin = 0.000142725
Gmin = 1.5325e-05
Gmin = 1.6455e-06
Gmin = 1.76685e-07
Gmin = 1.89714e-08
Gmin = 2.03704e-09
Gmin = 2.18725e-10
Gmin = 2.34854e-11
Gmin = 2.52173e-12
Gmin = 2.70769e-13
Gmin = 0
Gmin stepping succeeded in finding the operating point.


Date: Sat Oct 26 13:14:44 2024
Total elapsed time: 0.263 seconds.

tnom = 27
temp = 27
method = modified trap
totiter = 10707
traniter = 10273
tranpoints = 4823
accept = 4292
rejected = 531
matrix size = 27
fillins = 34
solver = Normal
Avg thread counts: 1.3/1.6/1.6/1.3
Matrix Compiler1: 3.56 KB object code size  0.9/0.6/[0.3]
Matrix Compiler2: 3.37 KB object code size  0.4/0.5/[0.2]

